[JUNCTIONS]
;ID Elev Demand
1 30 247.22 ;
2 30 236.11 ;
3 30 36.11 ;
4 30 201.39 ;
5 30 279.17 ;
6 30 375 ;
7 30 152.78 ;
8 30 145.83 ;
9 30 145.83 ;
10 30 138.89 ;
11 30 155.56 ;
12 30 261.11 ;
13 30 170.83 ;
14 30 77.78 ;
15 30 86.11 ;
16 30 240.28 ;
17 30 373.61 ;
18 30 16.67 ;
19 30 354.17 ;
20 30 258.33 ;
21 30 134.72 ;
22 30 290.28 ;
23 30 227.78 ;
24 30 47.22 ;
25 30 250 ;
26 30 102.78 ;
27 30 80.56 ;
28 30 100 ;
29 30 100 ;
30 30 29.17 ;
31 30 223.61 ;
32 30 0 ;
33 0 0 ;
36 0 0 ;
37 30 0 ;

[RESERVOIRS]
;ID Head
34 1000 ;
35 1000 ;

[PIPES]
; ID Node1 Node2 Length Diameter Roughness MinorLoss Status
1 32 1 100 1016 130 0 Open ;
2 1 2 1350 1016 130 0 Open ;
3 2 3 900 1016 130 0 Open ;
4 3 4 1150 1016 130 0 Open ;
5 4 5 1450 1016 130 0 Open ;
6 5 6 450 1016 130 0 Open ;
7 6 7 850 1016 130 0 Open ;
8 7 8 850 1016 130 0 Open ;
9 8 9 800 1016 130 0 Open ;
10 9 10 950 762 130 0 Open ;
11 10 11 1200 762 130 0 Open ;
12 11 12 3500 609.6 130 0 Open ;
13 37 9 100 1016 130 0 Open ;
14 9 13 800 406.4 130 0 Open ;
15 13 14 500 406.4 130 0 Open ;
16 14 15 550 304.8 130 0 Open ;
17 16 15 2730 406.4 130 0 Open ;
18 16 17 1750 508 130 0 Open ;
19 17 18 800 609.6 130 0 Open ;
20 18 2 400 609.6 130 0 Open ;
21 2 19 2200 1016 130 0 Open ;
22 19 20 1500 508 130 0 Open ;
23 20 21 500 304.8 130 0 Open ;
24 19 22 2650 1016 130 0 Open ;
25 22 23 1230 762 130 0 Open ;
26 23 24 1300 762 130 0 Open ;
27 25 24 850 508 130 0 Open ;
28 26 25 300 304.8 130 0 Open ;
29 15 26 750 304.8 130 0 Open ;
30 22 27 1500 406.4 130 0 Open ;
31 27 28 2000 406.4 130 0 Open ;
32 28 29 1600 304.8 130 0 Open ;
33 29 30 150 304.8 130 0 Open ;
34 31 30 860 406.4 130 0 Open ;
35 24 31 950 508 130 0 Open ;
40 35 36 100 2000 100 0 Open ;
200 34 33 100 2000 130 0 Open ;

[VALVES]
; ID Node1 Node2 Diameter Type Setting MinorLoss
36 33 32 1016 PRV 70 0 ;
37 36 37 1016 PRV 80 0 ;

[OPTIONS]
Units   LPS
Headloss  H-W
Specific Gravity 1
Viscosity 1
Trials 40
Accuracy 0.000001
CHECKFREQ 2
MAXCHECK 10
DAMPLIMIT 0
Unbalanced Continue 10
Pattern 1
Demand Multiplier 1.0
Emitter Exponent 0.5
Quality None mg/L
Diffusivity 1
Tolerance 0.01

[COORDINATES]
; Node X−Coord Y−Coord
1 5250.84 5585.28
2 5227.80 5969.63
3 5671.58 5975.42
4 5928.37 6327.59
5 6097.12 6613.73
6 6243.86 6863.19
7 6434.62 7244.70
8 6610.70 7677.58
9 6793.22 7990.65
10 7315.05 7963.72
11 7872.65 7941.71
12 8283.52 7941.71
13 6302.57 7990.65
14 5683.41 7990.65
15 5370.77 8000.40
16 5290.06 7552.85
17 5246.04 7119.98
18 5227.80 6542.06
19 4550.23 5969.63
20 4006.11 5968.09
21 3492.53 5968.09
22 4563.71 6400.96
23 4556.38 7031.93
24 4629.74 7971.06
25 4783.82 8000.40
26 5025.94 8000.40
27 3778.67 6422.97
28 3888.72 7083.29
29 3932.74 8469.96
30 4116.16 8264.53
31 4321.60 8059.10
32 5250.84 5385.00
33 5250.84 5185.00
36 6793.22 8400.00
37 6793.22 8200.00
34 5250.84 4985.00
35 6793.22 8600.00

[END]